---- qbsp / ericw-tools 2.0.0-alpha8-57-ga17764a8 ----

--- Options Summary ---
    "nocolor" was set to "1" (from command line)

Input file: C:\Users\Kitte\Desktop\thedepthsquake\Level\thedepths-compile.map
Output file: C:\Users\Kitte\Desktop\thedepthsquake\Level\thedepths.bsp

INFO: using built-in palette.
WARNING: thedepths-compile.map[line 6]: Unrecognised string escape - \.
WARNING: thedepths-compile.map[line 6]: Unrecognised string escape - \s
WARNING: thedepths-compile.map[line 6]: Unrecognised string escape - \e
WARNING: thedepths-compile.map[line 6]: Unrecognised string escape - \q
WARNING: thedepths-compile.map[line 6]: Unrecognised string escape - \p
WARNING: thedepths-compile.map[line 6]: Unrecognised string escape - \p
fs::addArchive: WARNING: archive 'C:/Users/Kitte/Desktop/Quake/extras/quake/prototype-wad/prototype_basic_1_3.wad' not found
      204 entities
       11 unique textures
      600 texinfos
    1,180 unique planes

INFO: world extents calculated to 8392 units
      203 brushes
    1,293 sides
      365 side bevels

            0 texture frames added
WARNING: unable to find texture __TB_empty
Processing hull 0...
    193 SOLID brushes
      3 WATER | DETAIL brushes
      1 DETAIL_WALL | DETAIL brushes
    197 brushes total
    1,257 visible sides
INFO: calculating BSP for 197 brushes with 1257 sides
      197 brushes
    1,239 visible faces
       18 non-visible faces
    4,830 nodes
        9 non-visible nodes
    3,655 expensive split nodes
    1,175 mid-split nodes
    4,831 leaves
    2,096 EMPTY leafs
    2,727 SOLID leafs
        3 WATER | DETAIL leafs
        5 DETAIL_WALL | DETAIL leafs
    4,831 leafs total
    35 max tree height
    16 avg tree height
    161 tiny portals
    19,318 tree portals
    1,121 outside leaves
    0 detail filled leafs
    197 brushes
    584 visible faces
    673 non-visible faces
    4,235 nodes
    3,095 non-visible nodes
    4,235 expensive split nodes
    4,236 leaves
    1,918 EMPTY leafs
    2,314 SOLID leafs
        3 WATER | DETAIL leafs
        1 DETAIL_WALL | DETAIL leafs
    4,236 leafs total
    40 max tree height
    16 avg tree height
    163 tiny portals
    17,003 tree portals
    1,517 outside leaves
    0 detail filled leafs
    163 tiny portals
    17,003 tree portals
    1,782 sides visible
    1,770 makefaces
      595 merged
      391 subdivided
    3,402 nodes pruned
    45 tiny portals
      404 player-occupiable leaves
      388 clusters of leaves
    1,064 vis portals
    430 SOLID leafs
    401 EMPTY leafs
      3 WATER | DETAIL leafs
    834 leafs total
    36 max tree height
    16 avg tree height
    1,589 edges added by tjunctions
    1,468 faces optimized through MWT
    4,588 triangles computed from MWT
      389 faces created via optimization of MWT triangles
    4,309 edges
    1,937 faces
Processing hull 1...
Processing hull 2...
WARNING: worldspawn at 0 0 0 has long value for key wad (length 420 >= 127)
Writing thedepths.bsp as Quake BSP bsp29
Wrote thedepths.bsp

count   lump name    byte size 
      7 models              448
   1139 planes            22780
   2358 vertexes          28296
    869 nodes             20856
    408 texinfos          16320
   1989 faces             39780
   2479 clipnodes         19832
    447 leafs             12516
   2536 marksurfaces       5072
   4418 edges             17672
   8758 surfedges         35032
     11 textures         169088
        lightdata             0
        visdata               0
        entdata           12515

1.263s seconds elapsed


