---- qbsp / ericw-tools 2.0.0-alpha8-57-ga17764a8 ----

--- Options Summary ---
    "nocolor" was set to "1" (from command line)

Input file: C:\Users\Kitte\Desktop\thedepthsquake\Level\thedepths-compile.map
Output file: C:\Users\Kitte\Desktop\thedepthsquake\Level\thedepths.bsp

INFO: using built-in palette.
WARNING: thedepths-compile.map[line 6]: Unrecognised string escape - \.
WARNING: thedepths-compile.map[line 6]: Unrecognised string escape - \s
WARNING: thedepths-compile.map[line 6]: Unrecognised string escape - \e
WARNING: thedepths-compile.map[line 6]: Unrecognised string escape - \q
WARNING: thedepths-compile.map[line 6]: Unrecognised string escape - \p
WARNING: thedepths-compile.map[line 6]: Unrecognised string escape - \p
fs::addArchive: WARNING: archive 'C:/Users/Kitte/Desktop/Quake/extras/quake/prototype-wad/prototype_basic_1_3.wad' not found
      167 entities
        8 unique textures
      452 texinfos
    1,132 unique planes

INFO: world extents calculated to 8392 units
      177 brushes
    1,133 sides
      308 side bevels

            0 texture frames added
WARNING: unable to find texture skip
WARNING: unable to find texture __TB_empty
Processing hull 0...
    175 SOLID brushes
    175 brushes total
    1,121 visible sides
INFO: calculating BSP for 175 brushes with 1121 sides
      175 brushes
    1,121 visible faces
    4,574 nodes
    3,670 expensive split nodes
      904 mid-split nodes
    4,575 leaves
    1,798 EMPTY leafs
    2,777 SOLID leafs
    4,575 leafs total
    35 max tree height
    16 avg tree height
    157 tiny portals
    18,134 tree portals
    537 outside leaves
    0 detail filled leafs
    175 brushes
    764 visible faces
    357 non-visible faces
    2,493 nodes
      717 non-visible nodes
    2,493 expensive split nodes
    2,494 leaves
      724 EMPTY leafs
    1,770 SOLID leafs
    2,494 leafs total
    54 max tree height
    21 avg tree height
    170 tiny portals
    10,489 tree portals
    191 outside leaves
    0 detail filled leafs
    170 tiny portals
    10,489 tree portals
WARNING: 2 sides not found (use -verbose to display)
    2,745 sides visible
    2,745 makefaces
    1,126 merged
    2,046 subdivided
    1,294 nodes pruned
    74 tiny portals
      533 player-occupiable leaves
      533 clusters of leaves
    1,539 vis portals
      667 SOLID leafs
      533 EMPTY leafs
    1,200 leafs total
    53 max tree height
    21 avg tree height
     2,938 edges added by tjunctions
     3,565 faces optimized through MWT
    10,081 triangles computed from MWT
       650 faces created via optimization of MWT triangles
    9,465 edges
    4,315 faces
Processing hull 1...
Processing hull 2...
WARNING: worldspawn at 0 0 0 has long value for key wad (length 329 >= 127)
Writing thedepths.bsp as Quake BSP bsp29
Wrote thedepths.bsp

count   lump name    byte size 
      3 models              192
   1053 planes            21060
   5093 vertexes          61116
   1211 nodes             29064
    341 texinfos          13640
   4343 faces             86860
   1829 clipnodes         14632
    548 leafs             15344
   4814 marksurfaces       9628
   9526 edges             38104
  18931 surfedges         75724
      8 textures         130836
        lightdata             0
        visdata               0
        entdata           10046

1.091s seconds elapsed


